<?xml version="1.0" encoding="UTF-8"?>

<!-- generated on mar 26 ene 2021 21:15:46 CET by Eclipse SUMO netedit Version 1.5.0
<configuration xmlns:xsi="http://www.w3.org/2001/XMLSchema-instance" xsi:noNamespaceSchemaLocation="http://sumo.dlr.de/xsd/netconvertConfiguration.xsd">

    <output>
        <output-file value="/root/Desktop/temp.net.xml"/>
    </output>

    <processing>
        <offset.disable-normalization value="true"/>
    </processing>

    <junctions>
        <no-turnarounds value="true"/>
    </junctions>

    <report>
        <aggregate-warnings value="5"/>
    </report>

</configuration>
-->

<net version="1.3" junctionCornerDetail="5" limitTurnSpeed="5.50" xmlns:xsi="http://www.w3.org/2001/XMLSchema-instance" xsi:noNamespaceSchemaLocation="http://sumo.dlr.de/xsd/net_file.xsd">

    <location netOffset="0.00,0.00" convBoundary="-160.31,96.68,1541.11,96.71" origBoundary="10000000000.00,10000000000.00,-10000000000.00,-10000000000.00" projParameter="!"/>

    <edge id="-gneE0" from="gneJ1" to="gneJ0" priority="-1">
        <lane id="-gneE0_0" index="0" speed="13.89" length="1701.42" shape="1541.11,98.31 -160.31,98.28"/>
    </edge>
    <edge id="gneE0" from="gneJ0" to="gneJ1" priority="-1">
        <lane id="gneE0_0" index="0" speed="13.89" length="1701.42" shape="-160.31,95.08 1541.11,95.11"/>
    </edge>

    <junction id="gneJ0" type="dead_end" x="-160.31" y="96.68" incLanes="-gneE0_0" intLanes="" shape="-160.31,96.68 -160.31,99.88 -160.31,96.68"/>
    <junction id="gneJ1" type="dead_end" x="1541.11" y="96.71" incLanes="gneE0_0" intLanes="" shape="1541.11,96.71 1541.11,93.51 1541.11,96.71"/>

</net>
